Version 4
SHEET 1 1560 1360
WIRE 208 -64 208 -208
WIRE 208 -64 192 -64
WIRE 304 -48 256 -48
WIRE 432 -48 304 -48
WIRE 192 -16 192 -64
WIRE 208 -16 192 -16
WIRE 208 48 208 32
WIRE 304 48 304 -48
WIRE 304 48 208 48
WIRE 208 112 208 48
WIRE 208 112 192 112
WIRE 304 128 256 128
WIRE 432 128 304 128
WIRE 192 160 192 112
WIRE 208 160 192 160
WIRE 208 240 208 208
WIRE 304 240 304 128
WIRE 304 240 208 240
WIRE 208 288 208 240
WIRE 208 288 192 288
WIRE 304 304 256 304
WIRE 192 336 192 288
WIRE 208 336 192 336
WIRE 208 400 208 384
WIRE 304 400 304 304
WIRE 304 400 208 400
WIRE 208 448 208 400
WIRE 208 448 144 448
WIRE 208 464 208 448
WIRE 224 512 208 512
WIRE 144 544 144 448
WIRE 160 544 144 544
WIRE 224 560 224 512
WIRE 224 560 208 560
WIRE 208 624 208 560
WIRE 208 624 144 624
WIRE 208 640 208 624
WIRE 224 688 208 688
WIRE 144 720 144 624
WIRE 160 720 144 720
WIRE 224 736 224 688
WIRE 224 736 208 736
WIRE 208 784 208 736
WIRE 208 784 144 784
WIRE 208 816 208 784
WIRE 224 864 208 864
WIRE 144 896 144 784
WIRE 160 896 144 896
WIRE 224 912 224 864
WIRE 224 912 208 912
WIRE 144 992 144 896
WIRE 432 992 144 992
WIRE 208 1136 208 912
FLAG 208 -208 vdd+
IOPIN 208 -208 In
FLAG 432 992 G_N3
IOPIN 432 992 Out
FLAG 208 1136 vss-
IOPIN 208 1136 In
FLAG 432 -48 G_P2
IOPIN 432 -48 Out
FLAG 432 128 G_P4
IOPIN 432 128 Out
SYMBOL nmos4 160 464 R0
WINDOW 3 85 79 Left 2
WINDOW 0 83 16 Left 2
WINDOW 123 83 49 Left 2
SYMATTR Value myNMOS
SYMATTR InstName N1
SYMATTR Value2 w=1.28u
SYMBOL nmos4 160 640 R0
WINDOW 3 85 79 Left 2
WINDOW 0 83 16 Left 2
WINDOW 123 83 49 Left 2
SYMATTR Value myNMOS
SYMATTR InstName N2
SYMATTR Value2 w=1.28u
SYMBOL nmos4 160 816 R0
WINDOW 3 85 79 Left 2
WINDOW 0 83 16 Left 2
WINDOW 123 83 49 Left 2
SYMATTR Value myNMOS
SYMATTR InstName N3
SYMATTR Value2 w=1.28u
SYMBOL pmos4 256 32 R180
WINDOW 3 82 14 Left 2
WINDOW 0 81 79 Left 2
WINDOW 123 80 48 Left 2
SYMATTR Value myPMOS
SYMATTR InstName P2
SYMATTR Value2 w=3.2u
SYMBOL pmos4 256 208 R180
WINDOW 3 82 14 Left 2
WINDOW 0 81 79 Left 2
WINDOW 123 80 48 Left 2
SYMATTR Value myPMOS
SYMATTR InstName P4
SYMATTR Value2 w=3.2u
SYMBOL pmos4 256 384 R180
WINDOW 3 82 14 Left 2
WINDOW 0 81 79 Left 2
WINDOW 123 80 48 Left 2
SYMATTR Value myPMOS
SYMATTR InstName P5
SYMATTR Value2 w=3.2u
TEXT -72 1344 Left 2 !.op
