Version 4
SHEET 1 2044 1448
WIRE -448 -416 -544 -416
WIRE -336 -416 -448 -416
WIRE -544 -384 -544 -416
WIRE -448 -320 -448 -416
WIRE -544 -288 -544 -304
WIRE -544 -288 -592 -288
WIRE -544 -272 -544 -288
WIRE -976 -240 -1008 -240
WIRE -848 -240 -864 -240
WIRE -1008 -176 -1008 -240
WIRE -864 -176 -864 -240
WIRE -544 -160 -544 -192
WIRE -448 -160 -448 -240
WIRE -448 -160 -544 -160
WIRE -336 -160 -448 -160
WIRE -592 -128 -592 -288
WIRE -1008 -16 -1008 -96
WIRE -864 -16 -864 -96
WIRE -864 -16 -1008 -16
WIRE -736 -16 -864 -16
WIRE -592 -16 -592 -48
WIRE -592 -16 -736 -16
WIRE -736 32 -736 -16
WIRE -1360 816 -1360 768
WIRE -1312 816 -1312 768
WIRE -1264 816 -1264 768
WIRE -752 816 -752 768
WIRE -688 816 -688 768
WIRE -160 816 -160 768
WIRE -96 816 -96 768
WIRE -1440 864 -1488 864
WIRE -912 880 -1136 880
WIRE -288 880 -560 880
WIRE 96 880 32 880
WIRE -1440 912 -1488 912
WIRE -1264 1008 -1264 960
WIRE -688 1008 -688 960
WIRE -96 1008 -96 960
WIRE -768 1328 -768 1280
WIRE -704 1328 -704 1280
WIRE -640 1328 -640 1280
WIRE -864 1376 -912 1376
WIRE -496 1376 -544 1376
FLAG -736 32 0
FLAG -848 -240 vdd+
IOPIN -848 -240 Out
FLAG -976 -240 vss-
IOPIN -976 -240 Out
FLAG -336 -416 v2
IOPIN -336 -416 Out
FLAG -336 -160 v1
IOPIN -336 -160 Out
FLAG -592 -288 Vcm
FLAG -704 1280 G_P2
IOPIN -704 1280 Out
FLAG -768 1280 G_P4
IOPIN -768 1280 Out
FLAG -1360 768 G_P4
IOPIN -1360 768 In
FLAG -1312 768 G_P2
IOPIN -1312 768 In
FLAG -752 768 G_P2
IOPIN -752 768 In
FLAG -160 768 G_N3
IOPIN -160 768 In
FLAG -912 1376 vdd+
IOPIN -912 1376 In
FLAG -1264 768 vdd+
IOPIN -1264 768 In
FLAG -688 768 vdd+
IOPIN -688 768 In
FLAG -96 768 vdd+
IOPIN -96 768 In
FLAG -640 1280 G_N3
IOPIN -640 1280 Out
FLAG -496 1376 vss-
IOPIN -496 1376 In
FLAG -688 1008 vss-
IOPIN -688 1008 In
FLAG -96 1008 vss-
IOPIN -96 1008 In
FLAG -1264 1008 vss-
IOPIN -1264 1008 In
FLAG -1488 864 v2
IOPIN -1488 864 In
FLAG -1488 912 v1
IOPIN -1488 912 In
FLAG 96 880 Vout
IOPIN 96 880 Out
SYMBOL voltage -864 -192 R0
WINDOW 0 -32 56 Left 2
WINDOW 3 38 75 Left 2
WINDOW 123 0 0 Left 0
WINDOW 39 0 0 Left 0
SYMATTR InstName +Vdd
SYMATTR Value 3.3
SYMBOL voltage -1008 -192 R0
WINDOW 0 -29 56 Left 2
WINDOW 3 37 73 Left 2
WINDOW 123 0 0 Left 0
WINDOW 39 0 0 Left 0
SYMATTR InstName -Vss
SYMATTR Value -3.3
SYMBOL voltage -592 -144 R0
WINDOW 0 -20 58 Left 2
WINDOW 3 -48 30 Left 2
WINDOW 123 -83 63 Left 2
WINDOW 39 0 0 Left 0
SYMATTR InstName Vcm
SYMATTR Value 0
SYMATTR Value2 AC 0
SYMBOL voltage -448 -336 R0
WINDOW 0 -14 59 Left 2
WINDOW 3 47 76 Left 2
WINDOW 123 51 43 Left 2
WINDOW 39 0 0 Left 0
SYMATTR InstName Vd
SYMATTR Value SINE(0 10u 100 0 0 0 4)
SYMATTR Value2 AC 10u
SYMBOL res -560 -400 R0
SYMATTR InstName R2
SYMATTR Value 1k
SYMBOL res -560 -288 R0
SYMATTR InstName R3
SYMATTR Value 1k
SYMBOL Bias_Block -672 1376 R0
SYMATTR InstName Bias
SYMBOL Differential_Amplifier -1328 640 R0
SYMATTR InstName Diff_Amp
SYMBOL Gain_Amplifier -704 640 R0
SYMATTR InstName Gain_Amp
SYMBOL Buffer_Amplifier -144 608 R0
SYMATTR InstName Buff_Amp
TEXT -1016 80 Left 2 !.model  myNMOS   NMOS (Level=1 Kp=125e-6  Vto=0.6   L=1u  Lambda=0.05  )\n.model  myPMOS   PMOS (Level=1 Kp=50e-6  Vto=-0.6   L=1u   Lambda=0.1   )
TEXT -1016 152 Left 2 ;Reminder:\nVA   =   1 / Lambda
TEXT -400 -232 Left 1 ;The two definitions for Vd\nare to be used with two seperate simulations\neither freq. analysis  or  the transient analysis
TEXT -544 -96 Left 1 ;Vcm is taken as zero\nthe AC value can be set to non-zero\nwhen CM amp. is to be analysed \n( need also to set Vd to zero )
TEXT -544 -496 Left 1 ;Note: \nFor calculations of Ad\nYou can plot somting like:     V(vo)  /  ( V(v2) - V(v1) )
TEXT -1616 1296 Left 2 !.tran 30m
